
*****
***** Welcome to the Xyce(TM) Parallel Electronic Simulator
*****
***** This is version Xyce Release 7.10.0-opensource
***** Date: Sun Jul 12 00:33:46 UTC 2026


***** Executing netlist tb_fl_mcpu32.xyce

***** Reading and parsing netlist...
Netlist warning in file
 /home/namibj/projects/asic/pdk/gf180mcuD/libs.tech/xyce/sm141064.spice at or
 near line 105
 MODEL_BINNING:  duplicate PARSER parameter.  Using the first value found = true
 
Netlist warning in file
 /home/namibj/projects/asic/pdk/gf180mcuD/libs.tech/xyce/sm141064.spice at or
 near line 105
 MODEL_BINNING:  duplicate PARSER parameter.  Using the first value found = true
 
Netlist warning in file
 /home/namibj/projects/asic/pdk/gf180mcuD/libs.tech/xyce/sm141064.spice at or
 near line 105
 MODEL_BINNING:  duplicate PARSER parameter.  Using the first value found = true
 
Netlist warning in file
 /home/namibj/projects/asic/pdk/gf180mcuD/libs.tech/xyce/sm141064.spice at or
 near line 105
 MODEL_BINNING:  duplicate PARSER parameter.  Using the first value found = true
 
Netlist warning in file
 /home/namibj/projects/asic/pdk/gf180mcuD/libs.tech/xyce/sm141064.spice at or
 near line 105
 MODEL_BINNING:  duplicate PARSER parameter.  Using the first value found = true
 
Netlist warning in file
 /home/namibj/projects/asic/pdk/gf180mcuD/libs.tech/xyce/sm141064.spice at or
 near line 105
 MODEL_BINNING:  duplicate PARSER parameter.  Using the first value found = true
 
Netlist warning in file
 /home/namibj/projects/asic/pdk/gf180mcuD/libs.tech/xyce/sm141064.spice at or
 near line 105
 MODEL_BINNING:  duplicate PARSER parameter.  Using the first value found = true
 
Netlist warning in file
 /home/namibj/projects/asic/pdk/gf180mcuD/libs.tech/xyce/sm141064.xyce at or
 near line 105
 MODEL_BINNING:  duplicate PARSER parameter.  Using the first value found = true
 
Netlist warning in file
 /home/namibj/projects/asic/pdk/gf180mcuD/libs.tech/xyce/sm141064.spice at or
 near line 105
 MODEL_BINNING:  duplicate PARSER parameter.  Using the first value found = true
 
Netlist warning in file
 /home/namibj/projects/asic/pdk/gf180mcuD/libs.tech/xyce/sm141064.spice at or
 near line 105
 MODEL_BINNING:  duplicate PARSER parameter.  Using the first value found = true
 
Netlist warning in file
 /home/namibj/projects/asic/pdk/gf180mcuD/libs.tech/xyce/sm141064.spice at or
 near line 105
 MODEL_BINNING:  duplicate PARSER parameter.  Using the first value found = true
 
Netlist warning in file
 /home/namibj/projects/asic/pdk/gf180mcuD/libs.tech/xyce/sm141064.xyce at or
 near line 105
 MODEL_BINNING:  duplicate PARSER parameter.  Using the first value found = true
 
Netlist warning in file
 /home/namibj/projects/asic/pdk/gf180mcuD/libs.tech/xyce/sm141064.spice at or
 near line 105
 MODEL_BINNING:  duplicate PARSER parameter.  Using the first value found = true
 
Netlist warning in file
 /home/namibj/projects/asic/pdk/gf180mcuD/libs.tech/xyce/sm141064.spice at or
 near line 105
 MODEL_BINNING:  duplicate PARSER parameter.  Using the first value found = true
 
Netlist warning in file
 /home/namibj/projects/asic/pdk/gf180mcuD/libs.tech/xyce/sm141064.spice at or
 near line 105
 MODEL_BINNING:  duplicate PARSER parameter.  Using the first value found = true
 
Netlist warning in file
 /home/namibj/projects/asic/pdk/gf180mcuD/libs.tech/xyce/sm141064.spice at or
 near line 105
 MODEL_BINNING:  duplicate PARSER parameter.  Using the first value found = true
 
Netlist warning in file
 /home/namibj/projects/asic/pdk/gf180mcuD/libs.tech/xyce/sm141064.spice at or
 near line 105
 MODEL_BINNING:  duplicate PARSER parameter.  Using the first value found = true
 
Netlist warning in file
 /home/namibj/projects/asic/pdk/gf180mcuD/libs.tech/xyce/sm141064.spice at or
 near line 105
 MODEL_BINNING:  duplicate PARSER parameter.  Using the first value found = true
 
Netlist warning in file
 /home/namibj/projects/asic/pdk/gf180mcuD/libs.tech/xyce/sm141064.spice at or
 near line 105
 MODEL_BINNING:  duplicate PARSER parameter.  Using the first value found = true
 
Netlist warning in file
 /home/namibj/projects/asic/pdk/gf180mcuD/libs.tech/xyce/sm141064.spice at or
 near line 105
 MODEL_BINNING:  duplicate PARSER parameter.  Using the first value found = true
 
Netlist warning in file
 /home/namibj/projects/asic/pdk/gf180mcuD/libs.tech/xyce/sm141064.xyce at or
 near line 105
 MODEL_BINNING:  duplicate PARSER parameter.  Using the first value found = true
 
Netlist warning in file
 /home/namibj/projects/asic/pdk/gf180mcuD/libs.tech/xyce/sm141064.spice at or
 near line 105
 MODEL_BINNING:  duplicate PARSER parameter.  Using the first value found = true
 
Netlist warning in file
 /home/namibj/projects/asic/pdk/gf180mcuD/libs.tech/xyce/sm141064.spice at or
 near line 105
 MODEL_BINNING:  duplicate PARSER parameter.  Using the first value found = true
 
Netlist warning in file
 /home/namibj/projects/asic/pdk/gf180mcuD/libs.tech/xyce/sm141064.spice at or
 near line 105
 MODEL_BINNING:  duplicate PARSER parameter.  Using the first value found = true
 
Netlist warning in file
 /home/namibj/projects/asic/pdk/gf180mcuD/libs.tech/xyce/sm141064.xyce at or
 near line 105
 MODEL_BINNING:  duplicate PARSER parameter.  Using the first value found = true
 
Netlist warning in file
 /home/namibj/projects/asic/pdk/gf180mcuD/libs.tech/xyce/sm141064.spice at or
 near line 105
 MODEL_BINNING:  duplicate PARSER parameter.  Using the first value found = true
 
Netlist warning in file
 /home/namibj/projects/asic/pdk/gf180mcuD/libs.tech/xyce/sm141064.spice at or
 near line 20567
 Device model PFET_03V3.8: Model card specifies BSIM4 version 4.5 which is
 older than the oldest version supported in Xyce (4.6.1).  Using oldest
 version available.
 
Netlist warning in file
 /home/namibj/projects/asic/pdk/gf180mcuD/libs.tech/xyce/sm141064.spice at or
 near line 20567
 Device model PFET_03V3.8: Given pbswgd is less than 0.1. Pbswgd is set to 0.1
Netlist warning in file
 /home/namibj/projects/asic/pdk/gf180mcuD/libs.tech/xyce/sm141064.spice at or
 near line 1635
 Device model NFET_03V3.4: Model card specifies BSIM4 version 4.5 which is
 older than the oldest version supported in Xyce (4.6.1).  Using oldest
 version available.
 
Netlist warning in file
 /home/namibj/projects/asic/pdk/gf180mcuD/libs.tech/xyce/sm141064.spice at or
 near line 1635
 Device model NFET_03V3.4: Given pbswgd is less than 0.1. Pbswgd is set to 0.1
Netlist warning in file
 /home/namibj/projects/asic/pdk/gf180mcuD/libs.tech/xyce/sm141064.spice at or
 near line 2117
 Device model NFET_03V3.6: Model card specifies BSIM4 version 4.5 which is
 older than the oldest version supported in Xyce (4.6.1).  Using oldest
 version available.
 
Netlist warning in file
 /home/namibj/projects/asic/pdk/gf180mcuD/libs.tech/xyce/sm141064.spice at or
 near line 2117
 Device model NFET_03V3.6: Given pbswgd is less than 0.1. Pbswgd is set to 0.1
Netlist warning in file
 /home/namibj/projects/asic/pdk/gf180mcuD/libs.tech/xyce/sm141064.spice at or
 near line 20119
 Device model PFET_03V3.6: Model card specifies BSIM4 version 4.5 which is
 older than the oldest version supported in Xyce (4.6.1).  Using oldest
 version available.
 
Netlist warning in file
 /home/namibj/projects/asic/pdk/gf180mcuD/libs.tech/xyce/sm141064.spice at or
 near line 20119
 Device model PFET_03V3.6: Given pbswgd is less than 0.1. Pbswgd is set to 0.1
Netlist warning in file
 /home/namibj/projects/asic/pdk/gf180mcuD/libs.tech/xyce/sm141064.spice at or
 near line 19879
 Device model PFET_03V3.5: Model card specifies BSIM4 version 4.5 which is
 older than the oldest version supported in Xyce (4.6.1).  Using oldest
 version available.
 
Netlist warning in file
 /home/namibj/projects/asic/pdk/gf180mcuD/libs.tech/xyce/sm141064.spice at or
 near line 19879
 Device model PFET_03V3.5: Given pbswgd is less than 0.1. Pbswgd is set to 0.1
Netlist warning in file
 /home/namibj/projects/asic/pdk/gf180mcuD/libs.tech/xyce/sm141064.spice at or
 near line 1874
 Device model NFET_03V3.5: Model card specifies BSIM4 version 4.5 which is
 older than the oldest version supported in Xyce (4.6.1).  Using oldest
 version available.
 
Netlist warning in file
 /home/namibj/projects/asic/pdk/gf180mcuD/libs.tech/xyce/sm141064.spice at or
 near line 1874
 Device model NFET_03V3.5: Given pbswgd is less than 0.1. Pbswgd is set to 0.1

***** Setting up topology...

Netlist warning in file tb_fl_mcpu32.xyce at or near line 46505
 Device instance X1:X18553:M0: Source conductance reset to 1.0e3 mho
Netlist warning in file tb_fl_mcpu32.xyce at or near line 46505
 Device instance X1:X18553:M0: Drain conductance reset to 1.0e3 mho
Netlist warning in file tb_fl_mcpu32.xyce at or near line 46505
 Device instance X1:X3751:M0: Source conductance reset to 1.0e3 mho
Netlist warning in file tb_fl_mcpu32.xyce at or near line 46505
 Device instance X1:X3751:M0: Drain conductance reset to 1.0e3 mho
Netlist warning in file tb_fl_mcpu32.xyce at or near line 46505
 Device instance X1:X13146:M0: Source conductance reset to 1.0e3 mho
Netlist warning in file tb_fl_mcpu32.xyce at or near line 46505
 Device instance X1:X13146:M0: Drain conductance reset to 1.0e3 mho
Netlist warning in file tb_fl_mcpu32.xyce at or near line 46505
 Device instance X1:X39957:M0: Source conductance reset to 1.0e3 mho
Netlist warning in file tb_fl_mcpu32.xyce at or near line 46505
 Device instance X1:X39957:M0: Drain conductance reset to 1.0e3 mho
Netlist warning in file tb_fl_mcpu32.xyce at or near line 46505
 Device instance X1:X4590:M0: Source conductance reset to 1.0e3 mho
Netlist warning in file tb_fl_mcpu32.xyce at or near line 46505
 Device instance X1:X4590:M0: Drain conductance reset to 1.0e3 mho
Netlist warning in file tb_fl_mcpu32.xyce at or near line 46505
 Device instance X1:X9165:M0: Source conductance reset to 1.0e3 mho
Netlist warning in file tb_fl_mcpu32.xyce at or near line 46505
 Device instance X1:X9165:M0: Drain conductance reset to 1.0e3 mho
Netlist warning in file tb_fl_mcpu32.xyce at or near line 46505
 Device instance X1:X29279:M0: Source conductance reset to 1.0e3 mho
Netlist warning in file tb_fl_mcpu32.xyce at or near line 46505
 Device instance X1:X29279:M0: Drain conductance reset to 1.0e3 mho
Netlist warning in file tb_fl_mcpu32.xyce at or near line 46505
 Device instance X1:X16714:M0: Source conductance reset to 1.0e3 mho
Netlist warning in file tb_fl_mcpu32.xyce at or near line 46505
 Device instance X1:X16714:M0: Drain conductance reset to 1.0e3 mho
Netlist warning in file tb_fl_mcpu32.xyce at or near line 46505
 Device instance X1:X31153:M0: Source conductance reset to 1.0e3 mho
Netlist warning in file tb_fl_mcpu32.xyce at or near line 46505
 Device instance X1:X31153:M0: Drain conductance reset to 1.0e3 mho
Netlist warning in file tb_fl_mcpu32.xyce at or near line 46505
 Device instance X1:X23158:M0: Source conductance reset to 1.0e3 mho
Netlist warning in file tb_fl_mcpu32.xyce at or near line 46505
 Device instance X1:X23158:M0: Drain conductance reset to 1.0e3 mho
Netlist warning in file tb_fl_mcpu32.xyce at or near line 46505
 Device instance X1:X15623:M0: Source conductance reset to 1.0e3 mho
Netlist warning in file tb_fl_mcpu32.xyce at or near line 46505
 Device instance X1:X15623:M0: Drain conductance reset to 1.0e3 mho
Netlist warning in file tb_fl_mcpu32.xyce at or near line 46505
 Device instance X1:X7907:M0: Source conductance reset to 1.0e3 mho
Netlist warning in file tb_fl_mcpu32.xyce at or near line 46505
 Device instance X1:X7907:M0: Drain conductance reset to 1.0e3 mho
Netlist warning in file tb_fl_mcpu32.xyce at or near line 46505
 Device instance X1:X37493:M0: Source conductance reset to 1.0e3 mho
Netlist warning in file tb_fl_mcpu32.xyce at or near line 46505
 Device instance X1:X37493:M0: Drain conductance reset to 1.0e3 mho
Netlist warning in file tb_fl_mcpu32.xyce at or near line 46505
 Device instance X1:X23208:M0: Source conductance reset to 1.0e3 mho
Netlist warning in file tb_fl_mcpu32.xyce at or near line 46505
 Device instance X1:X23208:M0: Drain conductance reset to 1.0e3 mho
Netlist warning in file tb_fl_mcpu32.xyce at or near line 46505
 Device instance X1:X5813:M0: Source conductance reset to 1.0e3 mho
Netlist warning in file tb_fl_mcpu32.xyce at or near line 46505
 Device instance X1:X5813:M0: Drain conductance reset to 1.0e3 mho
Netlist warning in file tb_fl_mcpu32.xyce at or near line 46505
 Device instance X1:X44245:M0: Source conductance reset to 1.0e3 mho
Netlist warning in file tb_fl_mcpu32.xyce at or near line 46505
 Device instance X1:X44245:M0: Drain conductance reset to 1.0e3 mho
Netlist warning in file tb_fl_mcpu32.xyce at or near line 46505
 Device instance X1:X8874:M0: Source conductance reset to 1.0e3 mho
Netlist warning in file tb_fl_mcpu32.xyce at or near line 46505
 Device instance X1:X8874:M0: Drain conductance reset to 1.0e3 mho
Netlist warning in file tb_fl_mcpu32.xyce at or near line 46505
 Device instance X1:X28090:M0: Source conductance reset to 1.0e3 mho
Netlist warning in file tb_fl_mcpu32.xyce at or near line 46505
 Device instance X1:X28090:M0: Drain conductance reset to 1.0e3 mho
Netlist warning in file tb_fl_mcpu32.xyce at or near line 46505
 Device instance X1:X24961:M0: Source conductance reset to 1.0e3 mho
Netlist warning in file tb_fl_mcpu32.xyce at or near line 46505
 Device instance X1:X24961:M0: Drain conductance reset to 1.0e3 mho
Netlist warning in file tb_fl_mcpu32.xyce at or near line 46505
 Device instance X1:X41559:M0: Source conductance reset to 1.0e3 mho
Netlist warning in file tb_fl_mcpu32.xyce at or near line 46505
 Device instance X1:X41559:M0: Drain conductance reset to 1.0e3 mho
Netlist warning in file tb_fl_mcpu32.xyce at or near line 46505
 Device instance X1:X27211:M0: Source conductance reset to 1.0e3 mho
Netlist warning in file tb_fl_mcpu32.xyce at or near line 46505
 Device instance X1:X27211:M0: Drain conductance reset to 1.0e3 mho
Netlist warning in file tb_fl_mcpu32.xyce at or near line 46505
 Device instance X1:X41602:M0: Source conductance reset to 1.0e3 mho
Netlist warning in file tb_fl_mcpu32.xyce at or near line 46505
 Device instance X1:X41602:M0: Drain conductance reset to 1.0e3 mho
Netlist warning in file tb_fl_mcpu32.xyce at or near line 46505
 Device instance X1:X17799:M0: Source conductance reset to 1.0e3 mho
Netlist warning in file tb_fl_mcpu32.xyce at or near line 46505
 Device instance X1:X17799:M0: Drain conductance reset to 1.0e3 mho
Netlist warning in file tb_fl_mcpu32.xyce at or near line 46505
 Device instance X1:X43706:M0: Source conductance reset to 1.0e3 mho
Netlist warning in file tb_fl_mcpu32.xyce at or near line 46505
 Device instance X1:X43706:M0: Drain conductance reset to 1.0e3 mho
Netlist warning in file tb_fl_mcpu32.xyce at or near line 46505
 Device instance X1:X8320:M0: Source conductance reset to 1.0e3 mho
Netlist warning in file tb_fl_mcpu32.xyce at or near line 46505
 Device instance X1:X8320:M0: Drain conductance reset to 1.0e3 mho
Netlist warning in file tb_fl_mcpu32.xyce at or near line 46505
 Device instance X1:X6245:M0: Source conductance reset to 1.0e3 mho
Netlist warning in file tb_fl_mcpu32.xyce at or near line 46505
 Device instance X1:X6245:M0: Drain conductance reset to 1.0e3 mho
Netlist warning in file tb_fl_mcpu32.xyce at or near line 46505
 Device instance X1:X24831:M0: Source conductance reset to 1.0e3 mho
Netlist warning in file tb_fl_mcpu32.xyce at or near line 46505
 Device instance X1:X24831:M0: Drain conductance reset to 1.0e3 mho
Netlist warning in file tb_fl_mcpu32.xyce at or near line 46505
 Device instance X1:X16480:M0: Source conductance reset to 1.0e3 mho
Netlist warning in file tb_fl_mcpu32.xyce at or near line 46505
 Device instance X1:X16480:M0: Drain conductance reset to 1.0e3 mho
Netlist warning in file tb_fl_mcpu32.xyce at or near line 46505
 Device instance X1:X40618:M0: Source conductance reset to 1.0e3 mho
Netlist warning in file tb_fl_mcpu32.xyce at or near line 46505
 Device instance X1:X40618:M0: Drain conductance reset to 1.0e3 mho
Netlist warning in file tb_fl_mcpu32.xyce at or near line 46505
 Device instance X1:X25517:M0: Source conductance reset to 1.0e3 mho
Netlist warning in file tb_fl_mcpu32.xyce at or near line 46505
 Device instance X1:X25517:M0: Drain conductance reset to 1.0e3 mho
Netlist warning in file tb_fl_mcpu32.xyce at or near line 46505
 Device instance X1:X20833:M0: Source conductance reset to 1.0e3 mho
Netlist warning in file tb_fl_mcpu32.xyce at or near line 46505
 Device instance X1:X20833:M0: Drain conductance reset to 1.0e3 mho
Netlist warning in file tb_fl_mcpu32.xyce at or near line 46505
 Device instance X1:X37782:M0: Source conductance reset to 1.0e3 mho
Netlist warning in file tb_fl_mcpu32.xyce at or near line 46505
 Device instance X1:X37782:M0: Drain conductance reset to 1.0e3 mho
Netlist warning in file tb_fl_mcpu32.xyce at or near line 46505
 Device instance X1:X39631:M0: Source conductance reset to 1.0e3 mho
Netlist warning in file tb_fl_mcpu32.xyce at or near line 46505
 Device instance X1:X39631:M0: Drain conductance reset to 1.0e3 mho
Netlist warning in file tb_fl_mcpu32.xyce at or near line 46505
 Device instance X1:X19410:M0: Source conductance reset to 1.0e3 mho
Netlist warning in file tb_fl_mcpu32.xyce at or near line 46505
 Device instance X1:X19410:M0: Drain conductance reset to 1.0e3 mho
Netlist warning in file tb_fl_mcpu32.xyce at or near line 46505
 Device instance X1:X10410:M0: Source conductance reset to 1.0e3 mho
Netlist warning in file tb_fl_mcpu32.xyce at or near line 46505
 Device instance X1:X10410:M0: Drain conductance reset to 1.0e3 mho
Netlist warning in file tb_fl_mcpu32.xyce at or near line 46505
 Device instance X1:X5282:M0: Source conductance reset to 1.0e3 mho
Netlist warning in file tb_fl_mcpu32.xyce at or near line 46505
 Device instance X1:X5282:M0: Drain conductance reset to 1.0e3 mho
Netlist warning in file tb_fl_mcpu32.xyce at or near line 46505
 Device instance X1:X36143:M0: Source conductance reset to 1.0e3 mho
Netlist warning in file tb_fl_mcpu32.xyce at or near line 46505
 Device instance X1:X36143:M0: Drain conductance reset to 1.0e3 mho
Netlist warning in file tb_fl_mcpu32.xyce at or near line 46505
 Device instance X1:X20410:M0: Source conductance reset to 1.0e3 mho

***** Device Count Summary ...
       C level 1 (Capacitor)                  280984
       D level 1,2 (Diode)                      9694
       M level 14 (BSIM4)                      44848
       R level 1 (Resistor)                   267528
       V level 1 (Independent Voltage Source)     22
       ---------------------------------------------
       Total Devices                          603076
***** Setting up matrix structure...
***** Number of Unknowns = 292543
***** Initializing...


Analyzed Singleton Problem:
---------------------------
Singletons Detected!
Num Singletons:      44
---------------------------


ConstructedSingleton Problem:
---------------------------
RatioOfDimensions:   0.99985
RatioOfNonzeros:     0.765899
---------------------------

ZOLTAN Load balancing method = 10 (HYPERGRAPH)

***** Solution Summary *****
	Number Successful Steps Taken:		1
	Number Failed Steps Attempted:		0
	Number Jacobians Evaluated:		362
	Number Linear Solves:			362
	Number Failed Linear Solves:		0
	Number Linear Solver Iterations:	70583
	Number Residual Evaluations:		373
	Number Nonlinear Convergence Failures:	0
	Total Residual Load Time:		78.2002 seconds
	Total Jacobian Load Time:		61.0558 seconds
	Total Linear Solution Time:		1952.14 seconds


***** Total Simulation Solvers Run Time: 2152.39 seconds
***** Total Elapsed Run Time:            2247.1 seconds
*****
***** End of Xyce(TM) Simulation
*****

Timing summary of processor 0
                 Stats                   Count       CPU Time              Wall Time
---------------------------------------- ----- --------------------- ---------------------
Xyce                                         1 11:37:06.077 (100.0%)    37:28.230 (100.0%)
  Analysis                                   1 11:34:58.495 (99.69%)    35:52.387 (95.74%)
    DC Sweep                                 1 11:34:58.486 (99.69%)    35:52.378 (95.74%)
      Solve                                  1 11:34:54.277 (99.68%)    35:51.825 (95.71%)
        Residual                           373     5:10.038 ( 0.74%)     1:18.204 ( 3.48%)
        Jacobian                           362     3:40.950 ( 0.53%)     1:01.060 ( 2.72%)
        Linear Solve                       362 11:15:28.360 (96.90%)    32:32.143 (86.83%)
      Successful Step                        1        0.698 (<0.01%)        0.365 ( 0.02%)
  Netlist Import                             1       56.349 ( 0.13%)       58.027 ( 2.58%)
    Parse Context                            1        0.997 (<0.01%)        1.054 ( 0.05%)
    Distribute Devices                       1       49.525 ( 0.12%)       50.869 ( 2.26%)
    Verify Devices                           1        0.000 (<0.01%)        0.000 (<0.01%)
    Instantiate                              1        1.548 (<0.01%)        1.781 ( 0.08%)
  Late Initialization                        1     1:11.118 ( 0.17%)       36.602 ( 1.63%)
    Global Indices                           1       29.185 ( 0.07%)       29.427 ( 1.31%)
  Setup Matrix Structure                     1       14.113 ( 0.03%)        3.045 ( 0.14%)


Timing summary of 2 processors
                                                     CPU Time              CPU Time              CPU Time              Wall Time             Wall Time             Wall Time
                 Stats                   Count   Sum (% of System)     Min (% of System)     Max (% of System)     Sum (% of System)     Min (% of System)     Max (% of System)
---------------------------------------- ----- --------------------- --------------------- --------------------- --------------------- --------------------- ---------------------
Xyce                                         2 23:16:24.933 (100.0%) 11:37:06.077 (49.92%) 11:39:18.856 (50.08%)  1:14:56.540 (100.0%)    37:28.230 (50.00%)    37:28.310 (50.00%)
  Analysis                                   2 23:12:11.452 (99.70%) 11:34:58.495 (49.77%) 11:37:12.957 (49.93%)  1:11:44.825 (95.74%)    35:52.387 (47.87%)    35:52.439 (47.87%)
    DC Sweep                                 2 23:12:11.434 (99.70%) 11:34:58.486 (49.77%) 11:37:12.948 (49.93%)  1:11:44.808 (95.74%)    35:52.378 (47.87%)    35:52.430 (47.87%)
      Solve                                  2 23:12:02.327 (99.69%) 11:34:54.277 (49.76%) 11:37:08.050 (49.92%)  1:11:43.771 (95.71%)    35:51.825 (47.86%)    35:51.946 (47.86%)
        Residual                           746    12:33.013 ( 0.90%)     5:10.038 ( 0.37%)     7:22.974 ( 0.53%)     2:28.429 ( 3.30%)     1:10.226 ( 1.56%)     1:18.204 ( 1.74%)
        Jacobian                           724     7:10.320 ( 0.51%)     3:29.370 ( 0.25%)     3:40.950 ( 0.26%)     2:02.520 ( 2.72%)     1:01.060 ( 1.36%)     1:01.460 ( 1.37%)
        Linear Solve                       724 22:26:35.746 (96.43%) 11:11:07.386 (48.06%) 11:15:28.360 (48.37%)  1:05:02.283 (86.78%)    32:30.139 (43.37%)    32:32.143 (43.41%)
      Successful Step                        2        1.936 (<0.01%)        0.698 (<0.01%)        1.239 (<0.01%)        0.649 ( 0.01%)        0.284 (<0.01%)        0.365 (<0.01%)
  Netlist Import                             2     1:52.685 ( 0.13%)       56.336 ( 0.07%)       56.349 ( 0.07%)     1:56.053 ( 2.58%)       58.027 ( 1.29%)       58.027 ( 1.29%)
    Parse Context                            2        2.035 (<0.01%)        0.997 (<0.01%)        1.038 (<0.01%)        2.107 ( 0.05%)        1.054 ( 0.02%)        1.054 ( 0.02%)
    Distribute Devices                       2     1:39.087 ( 0.12%)       49.525 ( 0.06%)       49.562 ( 0.06%)     1:41.738 ( 2.26%)       50.869 ( 1.13%)       50.869 ( 1.13%)
    Verify Devices                           2        0.000 (<0.01%)        0.000 (<0.01%)        0.000 (<0.01%)        0.000 (<0.01%)        0.000 (<0.01%)        0.000 (<0.01%)
    Instantiate                              2        5.688 (<0.01%)        1.548 (<0.01%)        4.140 (<0.01%)        6.274 ( 0.14%)        1.781 ( 0.04%)        4.493 ( 0.10%)
  Late Initialization                        2     2:20.588 ( 0.17%)     1:09.471 ( 0.08%)     1:11.118 ( 0.08%)     1:13.222 ( 1.63%)       36.602 ( 0.81%)       36.620 ( 0.81%)
    Global Indices                           2       58.397 ( 0.07%)       29.185 ( 0.03%)       29.212 ( 0.03%)       58.819 ( 1.31%)       29.392 ( 0.65%)       29.427 ( 0.65%)
  Setup Matrix Structure                     2       27.705 ( 0.03%)       13.592 ( 0.02%)       14.113 ( 0.02%)        6.089 ( 0.14%)        3.045 ( 0.07%)        3.045 ( 0.07%)

